                    3
 energy=  -75.970000166349948     
O           0.000000   -0.022939    0.000000
H           0.000000    0.550469    0.754065
H           0.000000    0.550469   -0.754065
                    3
 energy=  -75.970632139273135     
O           0.000000   -0.099350    0.000000
H          -0.000000    0.426445    0.812164
H          -0.000000    0.426445   -0.812164
                    3
 energy=  -75.961748193926240     
O           0.000000   -0.131360    0.000000
H          -0.000000    0.303345    0.868635
H          -0.000000    0.303345   -0.868635
                    3
 energy=  -75.942405041036892     
O           0.000000   -0.117673    0.000000
H          -0.000000    0.181197    0.931813
H          -0.000000    0.181197   -0.931813
                    3
 energy=  -75.921109326704624     
O           0.000000   -0.047997   -0.000000
H           0.000000    0.060216    0.975728
H          -0.000000    0.060216   -0.975728
                    3
 energy=  -75.921108572957309     
O           0.000000    0.047951   -0.000000
H          -0.000000   -0.060217    0.975718
H          -0.000000   -0.060217   -0.975718
                    3
 energy=  -75.942399011094992     
O          -0.000000    0.117586    0.000000
H           0.000000   -0.181199    0.931781
H           0.000000   -0.181199   -0.931781
                    3
 energy=  -75.961748384042153     
O          -0.000000    0.131362    0.000000
H           0.000000   -0.303345    0.868636
H          -0.000000   -0.303345   -0.868636
                    3
 energy=  -75.970632269129652     
O           0.000000    0.099352    0.000000
H          -0.000000   -0.426445    0.812164
H          -0.000000   -0.426445   -0.812164
                    3
 energy=  -75.970000163962553     
O           0.000000    0.022939    0.000000
H           0.000000   -0.550469    0.754065
H           0.000000   -0.550469   -0.754065
