                    3
 energy=  -75.970000166349976     
O           0.000000   -0.022939    0.000000
H           0.000000    0.550469    0.754065
H           0.000000    0.550469   -0.754065
                    3
 energy=  -75.973965166796219     
O           0.000000   -0.113487    0.000000
H          -0.000000    0.500897    0.785482
H          -0.000000    0.500897   -0.785482
                    3
 energy=  -75.973965695554043     
O           0.000000   -0.184368    0.000000
H          -0.000000    0.429660    0.785076
H          -0.000000    0.429660   -0.785076
                    3
 energy=  -75.973965694643852     
O           0.000000   -0.256432    0.000000
H          -0.000000    0.357497    0.785057
H          -0.000000    0.357497   -0.785057
                    3
 energy=  -75.973962910182124     
O           0.000000   -0.328595    0.000000
H          -0.000000    0.283433    0.786719
H          -0.000000    0.283433   -0.786719
                    3
 energy=  -75.973957214856568     
O          -0.000004   -0.402751    0.000000
H           0.000002    0.208332    0.788138
H           0.000002    0.208332   -0.788138
                    3
 energy=  -75.968514379272378     
O           0.000000   -0.355185    0.000000
H          -0.000000    0.153243    0.854010
H          -0.000000    0.153243   -0.854010
                    3
 energy=  -75.953897346104768     
O           0.000000   -0.250938    0.000000
H          -0.000000    0.126021    0.898519
H          -0.000000    0.126021   -0.898519
                    3
 energy=  -75.935081022999185     
O           0.000000   -0.153295    0.000000
H          -0.000000    0.077069    0.926736
H          -0.000000    0.077069   -0.926736
                    3
 energy=  -75.922285961577970     
O           0.000001   -0.053011    0.000000
H          -0.000000    0.026620    0.940522
H          -0.000000    0.026620   -0.940522
                    3
 energy=  -75.921926779584297     
O           0.000001    0.047596   -0.000000
H          -0.000000   -0.023974    0.940856
H          -0.000000   -0.023974   -0.940856
                    3
 energy=  -75.934002092792980     
O           0.000000    0.146980   -0.000000
H          -0.000000   -0.073970    0.927914
H          -0.000000   -0.073970   -0.927914
                    3
 energy=  -75.952389659882499     
O           0.000000    0.243082   -0.000000
H          -0.000000   -0.122243    0.901366
H          -0.000000   -0.122243   -0.901366
                    3
 energy=  -75.967229601276998     
O          -0.000000    0.347328   -0.000000
H           0.000000   -0.147051    0.860565
H           0.000000   -0.147051   -0.860565
                    3
 energy=  -75.973739987869862     
O           0.000000    0.389706   -0.000000
H          -0.000000   -0.205427    0.800139
H          -0.000000   -0.205427   -0.800139
                    3
 energy=  -75.973962338247389     
O           0.000000    0.328147    0.000000
H          -0.000000   -0.283617    0.786866
H          -0.000000   -0.283617   -0.786866
                    3
 energy=  -75.973965686592180     
O           0.000000    0.256792    0.000000
H          -0.000000   -0.357086    0.785087
H          -0.000000   -0.357086   -0.785087
                    3
 energy=  -75.973965687398049     
O           0.000000    0.184781    0.000000
H          -0.000000   -0.429244    0.785065
H          -0.000000   -0.429244   -0.785065
                    3
 energy=  -75.973965682040387     
O           0.000000    0.113614    0.000000
H          -0.000000   -0.500495    0.785098
H          -0.000000   -0.500495   -0.785098
                    3
 energy=  -75.970000163960066     
O           0.000000    0.022939    0.000000
H           0.000000   -0.550469    0.754065
H           0.000000   -0.550469   -0.754065
