                    3
 energy=  -75.970000166349948     
O           0.000000   -0.022939    0.000000
H           0.000000    0.550469    0.754065
H           0.000000    0.550469   -0.754065
                    3
 energy=  -75.973853868668755     
O           0.000000   -0.191168    0.000000
H          -0.000000    0.435171    0.786053
H          -0.000000    0.435171   -0.786053
                    3
 energy=  -75.973545328886502     
O           0.000000   -0.317626    0.000000
H          -0.000000    0.283161    0.807044
H          -0.000000    0.283161   -0.807044
                    3
 energy=  -75.956915883066756     
O           0.000000   -0.272762   -0.000000
H          -0.000000    0.122251    0.878556
H          -0.000000    0.122251   -0.878556
                    3
 energy=  -75.925044784202626     
O           0.000000   -0.092721    0.000000
H          -0.000000    0.035445    0.926417
H          -0.000000    0.035445   -0.926417
                    3
 energy=  -75.925035622958177     
O           0.000000    0.092618    0.000000
H          -0.000000   -0.035428    0.926421
H          -0.000000   -0.035428   -0.926421
                    3
 energy=  -75.956800549188699     
O          -0.000000    0.272227   -0.000000
H           0.000000   -0.121871    0.878701
H           0.000000   -0.121871   -0.878701
                    3
 energy=  -75.973506239492252     
O          -0.000000    0.318159    0.000000
H           0.000000   -0.280284    0.808211
H           0.000000   -0.280284   -0.808211
                    3
 energy=  -75.973869396752519     
O           0.000000    0.193231    0.000000
H          -0.000000   -0.429953    0.788248
H          -0.000000   -0.429953   -0.788248
                    3
 energy=  -75.970000163962553     
O           0.000000    0.022939    0.000000
H           0.000000   -0.550469    0.754065
H           0.000000   -0.550469   -0.754065
